/*--------------------------------*- C++ -*----------------------------------*\
| =========                 |                                                 |
| \\      /  F ield         | OpenFOAM: The Open Source CFD Toolbox           |
|  \\    /   O peration     | Version:  1.6                                   |
|   \\  /    A nd           | Web:      www.OpenFOAM.org                      |
|    \\/     M anipulation  |                                                 |
\*---------------------------------------------------------------------------*/
FoamFile
{
    version     2.0;
    format      ascii;
    class       dictionary;
    location    "constant";
    object      thermophysicalProperties;
}
// * * * * * * * * * * * * * * * * * * * * * * * * * * * * * * * * * * * * * //

thermoType      ePsiThermo<pureMixture<constTransport<specieThermo<eConstThermo<perfectGas>>>>>;

mixture         air 1 28.9    // species and molar mass
                717.5 0       // cv and heat of fusion
                1.8e-05 0.7;  // constTransport - mu and Pr=c_p mu / kappa


// ************************************************************************* //
